/*--------------------------------*- C++ -*----------------------------------*\
  =========                 |
  \\      /  F ield         | OpenFOAM: The Open Source CFD Toolbox
   \\    /   O peration     | Website:  https://openfoam.org
    \\  /    A nd           | Version:  11
     \\/     M anipulation  |
\*---------------------------------------------------------------------------*/
FoamFile
{
    format      ascii;
    class       dictionary;
    object      blockMeshDict;
}

// * * * * * * * * * * * * * * * * * * * * * * * * * * * * * * * * * * * * * //

convertToMeters 1;
// Important:
//   - Make the individual cells as isometric as possible (helps with convergence)
//   - Refinement levels will eventually be just divisions of the individual cells here
//   - Should completely encompass the entire domain - best to overshoot
//   - 

vertices
(
    (-0.2 -0.2 -0.2)
    ( 0.2 -0.2 -0.2)
    ( 0.2  0.2 -0.2)
    (-0.2  0.2 -0.2)
    (-0.2 -0.2  0.2)
    ( 0.2 -0.2  0.2)
    ( 0.2  0.2  0.2)
    (-0.2  0.2  0.2)
);

blocks
(
    hex (0 1 2 3 4 5 6 7) (40 40 40) simpleGrading (1 1 1)
);

boundary
(
    walls
    {
        type wall;
        faces
        (
            (2 6 5 1)
            (0 3 2 1)
            (0 4 7 3)
            (4 5 6 7)
        );
    }
    inlet
    {
        type patch;
        faces
        (
            (3 7 6 2)
        );
    }
    outlet
    {
        type patch;
        faces
        (
            (1 5 4 0)
        );
    }
);

// ************************************************************************* //
