/*--------------------------------*- C++ -*----------------------------------*\
  =========                 |
  \\      /  F ield         | OpenFOAM: The Open Source CFD Toolbox
   \\    /   O peration     | Website:  https://openfoam.org
    \\  /    A nd           | Version:  11
     \\/     M anipulation  |
\*---------------------------------------------------------------------------*/
FoamFile
{
    format      ascii;
    class       dictionary;
    object      surfaceFeaturesDict;
}
// * * * * * * * * * * * * * * * * * * * * * * * * * * * * * * * * * * * * * //

surfaces
(
    "new_walls_fine_m.stl"
    "new_inlet_fine.stl"
    "new_outlet_fine.stl"
    "tri_wheel.stl"
);

// Identify a feature when angle between faces < includedAngle
includedAngle   150;

trimFeatures
{
    // Remove features with fewer than the specified number of edges
    minElem         5;
}

// ************************************************************************* //
